Version 4
SHEET 1 880 680
WIRE 208 112 80 112
WIRE 0 144 0 112
WIRE 208 144 208 112
WIRE 0 240 0 224
WIRE 208 240 208 208
WIRE 208 240 0 240
FLAG 208 240 0
SYMBOL zener 224 208 R180
WINDOW 0 24 64 Left 2
WINDOW 3 24 0 Left 2
SYMATTR InstName D1
SYMATTR Value BZX84C6V2L
SYMATTR Description Diode
SYMATTR Type diode
SYMBOL res 96 96 R90
WINDOW 0 0 56 VBottom 2
WINDOW 3 -21 7 VTop 2
SYMATTR InstName R2
SYMATTR Value 100
SYMBOL voltage 0 128 R0
WINDOW 123 0 0 Left 2
WINDOW 39 0 0 Left 2
SYMATTR InstName V1
SYMATTR Value ""
TEXT -34 264 Left 2 !.dc V1 0 10 0.1
