Version 4
SHEET 1 880 680
WIRE 240 80 112 80
WIRE 320 80 240 80
WIRE 320 96 320 80
WIRE 32 112 32 80
WIRE 240 112 240 80
WIRE 32 208 32 192
WIRE 240 208 240 176
WIRE 240 208 32 208
WIRE 320 208 320 176
WIRE 320 208 240 208
FLAG 240 208 0
SYMBOL zener 256 176 R180
WINDOW 0 24 64 Left 2
WINDOW 3 24 0 Left 2
SYMATTR InstName D1
SYMATTR Value BZX84C6V2L
SYMATTR Description Diode
SYMATTR Type diode
SYMBOL res 128 64 R90
WINDOW 0 0 56 VBottom 2
WINDOW 3 -21 7 VTop 2
SYMATTR InstName R1
SYMATTR Value 100
SYMBOL voltage 32 96 R0
WINDOW 123 0 0 Left 2
WINDOW 39 0 0 Left 2
SYMATTR InstName V1
SYMATTR Value ""
SYMBOL res 304 80 R0
SYMATTR InstName R2
SYMATTR Value 200
TEXT -2 232 Left 2 !.dc V1 0 10 0.1
