Version 4
SHEET 1 880 680
WIRE 128 112 -32 112
WIRE 256 112 208 112
WIRE -32 144 -32 112
WIRE 256 144 256 112
WIRE 256 224 256 208
WIRE 256 224 -32 224
FLAG -32 224 0
FLAG 256 112 vcap
SYMBOL ind 112 128 R270
WINDOW 0 32 56 VTop 2
WINDOW 3 5 56 VBottom 2
SYMATTR InstName L1
SYMATTR Value 0.001
SYMBOL cap 240 144 R0
SYMATTR InstName C1
SYMATTR Value 0.000001
SYMBOL voltage -32 128 R0
WINDOW 123 0 0 Left 2
WINDOW 39 0 0 Left 2
SYMATTR InstName V1
SYMATTR Value SINE(0 2 5032.9212)
TEXT -66 248 Left 2 !.tran 0 1 0 0.00001
