Version 4
SHEET 1 880 680
WIRE 208 -16 160 -16
WIRE 368 -16 208 -16
WIRE 160 64 160 -16
WIRE 368 80 368 -16
WIRE 208 128 208 80
WIRE 160 208 32 208
WIRE 32 304 32 288
WIRE 208 304 208 224
WIRE 208 304 32 304
WIRE 368 304 368 160
WIRE 368 304 208 304
FLAG 208 304 0
SYMBOL nmos 160 128 R0
SYMATTR InstName M1
SYMATTR Value AO6408
SYMBOL voltage 368 64 R0
WINDOW 3 24 44 Left 2
WINDOW 123 0 0 Left 2
WINDOW 39 0 0 Left 2
SYMATTR InstName Vds
SYMATTR Value 3
SYMBOL voltage 32 192 R0
WINDOW 3 24 44 Left 2
WINDOW 123 0 0 Left 2
WINDOW 39 0 0 Left 2
SYMATTR InstName Vgs
SYMATTR Value 2
SYMBOL nmos 160 -16 R0
SYMATTR InstName M2
SYMATTR Value AO6408
TEXT -2 328 Left 2 !.tran 0 0.0001 0 0.00001
