Version 4
SHEET 1 880 680
WIRE 32 96 -16 96
WIRE 144 96 112 96
WIRE 352 96 240 96
WIRE -16 112 -16 96
WIRE 352 128 352 96
WIRE -16 256 -16 192
WIRE 192 256 192 160
WIRE 192 256 -16 256
WIRE 352 256 352 208
WIRE 352 256 192 256
FLAG 192 256 0
SYMBOL npn 240 160 M270
SYMATTR InstName Q1
SYMATTR Value 2N3904
SYMBOL res 336 112 R0
SYMATTR InstName R1
SYMATTR Value 1000
SYMBOL voltage -16 96 R0
WINDOW 123 0 0 Left 2
WINDOW 39 0 0 Left 2
SYMATTR InstName V1
SYMATTR Value -10
SYMBOL res 16 112 R270
WINDOW 0 32 56 VTop 2
WINDOW 3 0 56 VBottom 2
SYMATTR InstName R2
SYMATTR Value 100
TEXT -64 280 Left 2 !.tran 0 0.001 0 0.001
