Version 4
SHEET 1 880 680
WIRE 368 -128 64 -128
WIRE 64 -80 64 -128
WIRE 64 -80 -16 -80
WIRE 144 -80 64 -80
WIRE 144 16 144 0
WIRE 208 16 144 16
WIRE 304 16 272 16
WIRE 144 32 144 16
WIRE 368 32 368 -128
WIRE -16 80 -16 0
WIRE -16 80 -80 80
WIRE 80 80 -16 80
WIRE 304 112 304 16
WIRE -144 144 -144 80
WIRE 144 160 144 128
WIRE 224 160 144 160
WIRE -16 176 -16 80
WIRE 144 176 144 160
WIRE 224 176 224 160
WIRE -144 256 -144 224
WIRE -16 256 -144 256
WIRE 144 256 -16 256
WIRE 224 256 224 240
WIRE 224 256 144 256
WIRE 304 256 304 192
WIRE 304 256 224 256
WIRE 368 256 368 112
WIRE 368 256 304 256
FLAG 144 256 0
SYMBOL npn 80 32 R0
SYMATTR InstName Q1
SYMATTR Value BC847A
SYMBOL res 128 -96 R0
SYMATTR InstName R1
SYMATTR Value 3000
SYMBOL res 128 160 R0
SYMATTR InstName R2
SYMATTR Value 900
SYMBOL res -32 -96 R0
SYMATTR InstName R3
SYMATTR Value 100000
SYMBOL res -32 160 R0
SYMATTR InstName R4
SYMATTR Value 20000
SYMBOL cap 272 0 R90
WINDOW 0 0 32 VBottom 2
WINDOW 3 32 32 VTop 2
SYMATTR InstName C1
SYMATTR Value 100n
SYMBOL cap -80 64 R90
WINDOW 0 0 32 VBottom 2
WINDOW 3 32 32 VTop 2
SYMATTR InstName C2
SYMATTR Value 100n
SYMBOL voltage 368 16 R0
WINDOW 123 0 0 Left 2
WINDOW 39 0 0 Left 2
SYMATTR InstName V1
SYMATTR Value 12
SYMBOL voltage -144 128 R0
WINDOW 3 -219 105 Left 2
WINDOW 123 0 0 Left 2
WINDOW 39 0 0 Left 2
SYMATTR Value SINE(0 0.025 62500)
SYMATTR InstName V2
SYMBOL cap 208 176 R0
SYMATTR InstName C3
SYMATTR Value 10µ
SYMBOL res 288 96 R0
SYMATTR InstName R5
SYMATTR Value 3000
TEXT -368 280 Left 2 !.tran 0 0.001 0 0.0000001
