Version 4
SHEET 1 880 680
WIRE 32 96 -32 96
WIRE 176 96 112 96
WIRE 272 96 176 96
WIRE 352 96 272 96
WIRE 176 112 176 96
WIRE 272 112 272 96
WIRE 352 112 352 96
WIRE -32 144 -32 96
WIRE 176 224 176 192
WIRE 176 224 -32 224
WIRE 272 224 272 176
WIRE 272 224 176 224
WIRE 352 224 352 192
WIRE 352 224 272 224
FLAG 176 224 0
SYMBOL ind 160 96 R0
SYMATTR InstName L1
SYMATTR Value 2m
SYMBOL cap 256 112 R0
SYMATTR InstName C1
SYMATTR Value 500µ
SYMBOL res 336 96 R0
SYMATTR InstName R1
SYMATTR Value 2
SYMBOL res 128 80 R90
WINDOW 0 0 56 VBottom 2
WINDOW 3 32 56 VTop 2
SYMATTR InstName R2
SYMATTR Value 2
SYMBOL voltage -32 128 R0
WINDOW 123 0 0 Left 2
WINDOW 39 0 0 Left 2
SYMATTR InstName V1
SYMATTR Value SINE(0 5.6568 159.155)
TEXT -66 248 Left 2 !.tran 0 0.1 0 0.0001
