Version 4
SHEET 1 880 680
WIRE 448 -16 256 -16
WIRE 256 64 256 -16
WIRE 448 96 448 -16
WIRE 80 112 48 112
WIRE 192 112 160 112
WIRE 48 128 48 112
WIRE 256 192 256 160
WIRE 48 304 48 208
WIRE 256 304 256 272
WIRE 256 304 48 304
WIRE 448 304 448 176
WIRE 448 304 256 304
FLAG 256 304 0
SYMBOL npn 192 64 R0
SYMATTR InstName Q1
SYMBOL voltage 48 112 R0
WINDOW 123 0 0 Left 2
WINDOW 39 0 0 Left 2
SYMATTR InstName Vb
SYMATTR Value ""
SYMBOL voltage 448 80 R0
WINDOW 3 24 44 Left 2
WINDOW 123 0 0 Left 2
WINDOW 39 0 0 Left 2
SYMATTR InstName Vcc
SYMATTR Value 10
SYMBOL res 240 176 R0
SYMATTR InstName R1
SYMATTR Value 1000
SYMBOL res 64 128 R270
WINDOW 0 32 56 VTop 2
WINDOW 3 0 56 VBottom 2
SYMATTR InstName R2
SYMATTR Value 1000
TEXT 14 328 Left 2 !.dc Vb 0 10 1
