Version 4
SHEET 1 880 680
WIRE 176 80 112 80
WIRE 304 80 176 80
WIRE 32 144 32 80
WIRE 176 176 176 144
WIRE 304 176 304 144
WIRE 32 256 32 224
WIRE 176 256 32 256
WIRE 304 256 176 256
FLAG 176 256 0
SYMBOL diode 160 80 R0
SYMATTR InstName D1
SYMBOL diode 320 144 R180
WINDOW 0 24 64 Left 2
WINDOW 3 24 0 Left 2
SYMATTR InstName D2
SYMBOL res 288 160 R0
SYMATTR InstName R1
SYMATTR Value 200
SYMBOL res 160 160 R0
SYMATTR InstName R2
SYMATTR Value 100
SYMBOL res 128 64 R90
WINDOW 0 0 56 VBottom 2
WINDOW 3 32 56 VTop 2
SYMATTR InstName R3
SYMATTR Value 100
SYMBOL voltage 32 128 R0
WINDOW 3 -183 3 Left 2
WINDOW 123 0 0 Left 2
WINDOW 39 0 0 Left 2
SYMATTR InstName V1
SYMATTR Value SINE(2 0.1 100)
TEXT -152 280 Left 2 !.tran 0 0.1 0 0.00001
