Version 4
SHEET 1 880 680
WIRE 192 80 160 80
WIRE 224 80 192 80
WIRE 384 80 288 80
WIRE 480 80 384 80
WIRE 192 96 192 80
WIRE 480 96 480 80
WIRE 384 112 384 80
WIRE 96 176 96 80
WIRE 192 176 160 176
WIRE 224 176 192 176
WIRE 288 176 288 80
WIRE 96 272 96 176
WIRE 384 272 384 176
WIRE 384 272 96 272
WIRE 480 272 480 176
WIRE 480 272 384 272
FLAG 384 272 0
SYMBOL diode 96 96 R270
WINDOW 0 32 32 VTop 2
WINDOW 3 0 32 VBottom 2
SYMATTR InstName D1
SYMBOL diode 224 96 R270
WINDOW 0 32 32 VTop 2
WINDOW 3 0 32 VBottom 2
SYMATTR InstName D2
SYMBOL diode 96 192 R270
WINDOW 0 32 32 VTop 2
WINDOW 3 0 32 VBottom 2
SYMATTR InstName D3
SYMBOL diode 224 192 R270
WINDOW 0 32 32 VTop 2
WINDOW 3 0 32 VBottom 2
SYMATTR InstName D4
SYMBOL voltage 192 80 R0
WINDOW 123 0 0 Left 2
WINDOW 39 0 0 Left 2
SYMATTR InstName V1
SYMATTR Value SINE(0 15 50)
SYMBOL cap 368 112 R0
SYMATTR InstName C1
SYMATTR Value 0.001
SYMBOL res 464 80 R0
SYMATTR InstName R1
SYMATTR Value 100
TEXT 90 296 Left 2 !.tran 0.1
