Version 4
SHEET 1 880 680
WIRE 0 48 -96 48
WIRE 112 48 64 48
WIRE 272 48 112 48
WIRE -96 64 -96 48
WIRE 272 64 272 48
WIRE 112 80 112 48
WIRE -96 224 -96 144
WIRE 112 224 112 144
WIRE 112 224 -96 224
WIRE 272 224 272 144
WIRE 272 224 112 224
FLAG 112 224 0
SYMBOL cap 0 64 R270
WINDOW 0 32 32 VTop 2
WINDOW 3 0 32 VBottom 2
SYMATTR InstName C1
SYMATTR Value 0.0001
SYMBOL diode 96 80 R0
SYMATTR InstName D1
SYMBOL res 256 48 R0
SYMATTR InstName R1
SYMATTR Value 10000
SYMBOL voltage -96 48 R0
WINDOW 123 0 0 Left 2
WINDOW 39 0 0 Left 2
SYMATTR InstName V1
SYMATTR Value SINE(0 10 50)
TEXT -128 248 Left 2 !.tran 0 0.1 0 0.0001
