Version 4
SHEET 1 880 680
WIRE 96 112 32 112
WIRE 192 112 176 112
WIRE 336 112 192 112
WIRE 192 208 192 176
WIRE 32 288 32 192
WIRE 192 288 32 288
WIRE 336 288 336 192
WIRE 336 288 192 288
FLAG 192 288 0
SYMBOL diode 176 112 R0
SYMATTR InstName D1
SYMBOL res 320 96 R0
SYMATTR InstName R1
SYMATTR Value 1000
SYMBOL voltage 32 96 R0
WINDOW 0 -66 19 Left 2
WINDOW 3 -180 89 Left 2
WINDOW 123 0 0 Left 2
WINDOW 39 0 0 Left 2
SYMATTR InstName V1
SYMATTR Value SINE(0 10 20)
SYMBOL res 80 128 R270
WINDOW 0 32 56 VTop 2
WINDOW 3 0 56 VBottom 2
SYMATTR InstName R2
SYMATTR Value 10
SYMBOL voltage 192 192 R0
WINDOW 123 0 0 Left 2
WINDOW 39 0 0 Left 2
SYMATTR InstName V2
SYMATTR Value 0
TEXT -184 48 Left 2 !.tran 0 0.1 0 0.0001
