Version 4
SHEET 1 880 680
WIRE 144 96 32 96
WIRE 256 96 208 96
WIRE 352 96 256 96
WIRE 32 112 32 96
WIRE 256 112 256 96
WIRE 352 112 352 96
WIRE 32 208 32 192
WIRE 256 208 256 176
WIRE 256 208 32 208
WIRE 352 208 352 192
WIRE 352 208 256 208
FLAG 256 208 0
SYMBOL voltage 32 96 R0
WINDOW 123 0 0 Left 2
WINDOW 39 0 0 Left 2
SYMATTR InstName V1
SYMATTR Value SINE(0 15 50)
SYMBOL diode 144 112 R270
WINDOW 0 32 32 VTop 2
WINDOW 3 0 32 VBottom 2
SYMATTR InstName D1
SYMATTR Value RFN5TF8S
SYMBOL cap 240 112 R0
SYMATTR InstName C1
SYMATTR Value 0.001
SYMBOL res 336 96 R0
SYMATTR InstName R1
SYMATTR Value 100
TEXT -2 232 Left 2 !.tran 0.1
