Version 4
SHEET 1 880 680
WIRE 112 96 0 96
WIRE 272 96 192 96
WIRE 0 128 0 96
WIRE 272 128 272 96
WIRE 0 240 0 208
WIRE 272 240 272 192
WIRE 272 240 0 240
FLAG 272 240 0
SYMBOL res 208 80 R90
WINDOW 0 0 56 VBottom 2
WINDOW 3 32 56 VTop 2
SYMATTR InstName R1
SYMATTR Value 1k
SYMBOL cap 256 128 R0
SYMATTR InstName C1
SYMATTR Value 1µ
SYMBOL voltage 0 112 R0
WINDOW 123 24 72 Left 2
WINDOW 39 0 0 Left 2
WINDOW 3 24 44 Left 2
SYMATTR Value2 AC 1
SYMATTR InstName AC
SYMATTR Value SINE(0 100 159)
TEXT -128 288 Left 2 !.tran 0 1 0 0.00001
