Version 4
SHEET 1 880 680
WIRE 416 0 160 0
WIRE 160 32 160 0
WIRE 416 96 416 0
WIRE 64 144 16 144
WIRE 160 144 160 112
WIRE 160 144 128 144
WIRE 16 176 16 144
WIRE 224 192 224 144
WIRE 304 192 288 192
FLAG 16 256 0
FLAG 416 176 0
FLAG 304 272 0
SYMBOL res 144 16 R0
SYMATTR InstName R1
SYMATTR Value 4000
SYMBOL res 288 176 R0
SYMATTR InstName R2
SYMATTR Value 1000
SYMBOL diode 160 160 R270
WINDOW 0 32 32 VTop 2
WINDOW 3 0 32 VBottom 2
SYMATTR InstName D1
SYMBOL diode 224 208 R270
WINDOW 0 32 32 VTop 2
WINDOW 3 0 32 VBottom 2
SYMATTR InstName D2
SYMBOL diode 128 128 R90
WINDOW 0 0 32 VBottom 2
WINDOW 3 32 32 VTop 2
SYMATTR InstName D3
SYMBOL voltage 416 80 R0
WINDOW 123 0 0 Left 2
WINDOW 39 0 0 Left 2
SYMATTR InstName V1
SYMATTR Value 5
SYMBOL voltage 16 160 R0
WINDOW 123 0 0 Left 2
WINDOW 39 0 0 Left 2
SYMATTR InstName V2
SYMATTR Value 1.047325
TEXT -18 296 Left 2 !.tran 0 0.001 0 0.00001
