Version 4
SHEET 1 880 680
WIRE -736 -528 -928 -528
WIRE -496 -528 -736 -528
WIRE -304 -528 -496 -528
WIRE -928 -512 -928 -528
WIRE -496 -464 -496 -528
WIRE -928 -400 -928 -432
WIRE -736 -384 -736 -448
WIRE -304 -352 -304 -528
WIRE -816 -336 -880 -336
WIRE -800 -336 -816 -336
WIRE -496 -336 -496 -384
WIRE -496 -304 -496 -336
WIRE -976 -272 -976 -336
WIRE -736 -256 -736 -288
WIRE -624 -256 -736 -256
WIRE -560 -256 -624 -256
WIRE -976 -240 -976 -272
WIRE -736 -208 -736 -256
WIRE -976 -128 -976 -160
WIRE -736 -128 -976 -128
WIRE -496 -128 -496 -208
WIRE -496 -128 -736 -128
WIRE -304 -128 -304 -272
WIRE -304 -128 -496 -128
FLAG -496 -128 0
FLAG -496 -336 Vout
FLAG -976 -272 vin
FLAG -816 -336 base2
FLAG -624 -256 base3
FLAG -928 -400 base1
SYMBOL npn -560 -304 R0
SYMATTR InstName Q1
SYMBOL npn -800 -384 R0
SYMATTR InstName Q2
SYMBOL npn -880 -400 R90
SYMATTR InstName Q3
SYMBOL res -752 -544 R0
SYMATTR InstName R1
SYMATTR Value 1600
SYMBOL res -752 -224 R0
SYMATTR InstName R2
SYMATTR Value 1000
SYMBOL res -512 -480 R0
SYMATTR InstName R4
SYMATTR Value 500
SYMBOL voltage -304 -368 R0
WINDOW 123 0 0 Left 2
WINDOW 39 0 0 Left 2
SYMATTR InstName V1
SYMATTR Value 5
SYMBOL voltage -976 -256 R0
WINDOW 3 -352 108 Left 2
WINDOW 123 0 0 Left 2
WINDOW 39 0 0 Left 2
SYMATTR Value PULSE(0 2.5 0 0 0 0.0001 0.0002)
SYMATTR InstName V2
SYMBOL res -944 -528 R0
SYMATTR InstName R3
SYMATTR Value 4000
TEXT -1328 -104 Left 2 !.tran 0 0.001 0 0.000001
