Version 4
SHEET 1 880 680
WIRE 0 -32 -256 -32
WIRE -256 80 -256 -32
WIRE -64 112 -64 80
WIRE -96 128 -160 128
WIRE 256 128 256 96
WIRE 0 144 0 -32
WIRE 0 144 -32 144
WIRE 224 144 0 144
WIRE -96 160 -128 160
WIRE 320 160 288 160
WIRE -256 176 -256 160
WIRE -160 176 -160 128
WIRE -160 176 -256 176
WIRE 224 176 192 176
WIRE -64 208 -64 176
WIRE -128 224 -128 160
WIRE 0 224 -128 224
WIRE 256 224 256 192
WIRE 0 240 0 224
WIRE 192 240 192 176
WIRE 320 240 192 240
WIRE 320 256 320 240
WIRE -64 320 -64 288
WIRE 0 320 -64 320
WIRE 256 336 256 304
WIRE 320 336 256 336
FLAG 0 320 0
FLAG -64 0 0
FLAG -256 240 0
FLAG 320 336 0
FLAG 256 16 0
SYMBOL res -16 128 R0
SYMATTR InstName R4
SYMATTR Value 10000
SYMBOL res -16 224 R0
SYMATTR InstName R5
SYMATTR Value 2000
SYMBOL Opamps\\OP07 -64 80 R0
SYMATTR InstName U2
SYMBOL voltage -64 96 R180
WINDOW 0 24 96 Left 2
WINDOW 3 24 16 Left 2
WINDOW 123 0 0 Left 2
WINDOW 39 0 0 Left 2
SYMATTR InstName V4
SYMATTR Value 10
SYMBOL voltage -64 304 R180
WINDOW 0 24 96 Left 2
WINDOW 3 24 16 Left 2
WINDOW 123 0 0 Left 2
WINDOW 39 0 0 Left 2
SYMATTR InstName V5
SYMATTR Value 10
SYMBOL res -272 64 R0
SYMATTR InstName R1
SYMATTR Value 100
SYMBOL cap -272 176 R0
SYMATTR InstName C1
SYMATTR Value 0.00001
SYMBOL res 304 144 R0
SYMATTR InstName R2
SYMATTR Value 10000
SYMBOL res 304 240 R0
SYMATTR InstName R3
SYMATTR Value 2000
SYMBOL Opamps\\OP07 256 96 R0
SYMATTR InstName U1
SYMBOL voltage 256 112 R180
WINDOW 0 24 96 Left 2
WINDOW 3 24 16 Left 2
WINDOW 123 0 0 Left 2
WINDOW 39 0 0 Left 2
SYMATTR InstName V2
SYMATTR Value 10
SYMBOL voltage 256 320 R180
WINDOW 0 24 96 Left 2
WINDOW 3 24 16 Left 2
WINDOW 123 0 0 Left 2
WINDOW 39 0 0 Left 2
SYMATTR InstName V3
SYMATTR Value 10
TEXT -290 392 Left 2 !.tran 0 0.01 0 0.00001
