Version 4
SHEET 1 888 680
WIRE 688 -144 656 -144
WIRE 880 -144 752 -144
WIRE -592 -80 -848 -80
WIRE 16 -80 -192 -80
WIRE 448 -80 224 -80
WIRE 656 -48 656 -144
WIRE 752 -48 656 -48
WIRE 880 -48 880 -144
WIRE 880 -48 832 -48
WIRE 224 -16 224 -80
WIRE -848 32 -848 -80
WIRE -656 64 -656 32
WIRE -688 80 -752 80
WIRE -336 80 -336 48
WIRE -64 80 -64 48
WIRE -592 96 -592 -80
WIRE -592 96 -624 96
WIRE -368 96 -592 96
WIRE -192 96 -192 -80
WIRE -96 96 -192 96
WIRE 336 96 336 64
WIRE -688 112 -720 112
WIRE -272 112 -304 112
WIRE -160 112 -272 112
WIRE 16 112 16 -80
WIRE 16 112 -32 112
WIRE 144 112 16 112
WIRE 224 112 224 48
WIRE 304 112 224 112
WIRE 736 112 736 80
WIRE -848 128 -848 112
WIRE -752 128 -752 80
WIRE -752 128 -848 128
WIRE -368 128 -400 128
WIRE -160 128 -160 112
WIRE -96 128 -160 128
WIRE 448 128 448 -80
WIRE 448 128 368 128
WIRE 528 128 448 128
WIRE 656 128 656 -48
WIRE 656 128 608 128
WIRE 704 128 656 128
WIRE 304 144 224 144
WIRE 880 144 880 -48
WIRE 880 144 768 144
WIRE -656 160 -656 128
WIRE -720 176 -720 112
WIRE -592 176 -720 176
WIRE -336 176 -336 144
WIRE -64 176 -64 144
WIRE -592 192 -592 176
WIRE -400 192 -400 128
WIRE -272 192 -400 192
WIRE 336 192 336 160
WIRE -272 208 -272 192
WIRE 736 208 736 176
WIRE 224 240 224 144
WIRE -656 272 -656 240
WIRE -592 272 -656 272
WIRE -336 288 -336 256
WIRE -272 288 -336 288
FLAG -592 272 0
FLAG -656 -48 0
FLAG -848 192 0
FLAG -272 288 0
FLAG -336 -32 0
FLAG 336 -16 0
FLAG 336 272 0
FLAG 736 0 0
FLAG 736 288 0
FLAG 224 240 0
FLAG -64 -32 0
FLAG -64 256 0
SYMBOL res -608 80 R0
SYMATTR InstName R1
SYMATTR Value 10000
SYMBOL res -608 176 R0
SYMATTR InstName R2
SYMATTR Value 2000
SYMBOL Opamps\\OP07 -656 32 R0
SYMATTR InstName U1
SYMBOL voltage -656 48 R180
WINDOW 0 24 96 Left 2
WINDOW 3 24 16 Left 2
WINDOW 123 0 0 Left 2
WINDOW 39 0 0 Left 2
SYMATTR InstName V1
SYMATTR Value 10
SYMBOL voltage -656 256 R180
WINDOW 0 24 96 Left 2
WINDOW 3 24 16 Left 2
WINDOW 123 0 0 Left 2
WINDOW 39 0 0 Left 2
SYMATTR InstName V2
SYMATTR Value 10
SYMBOL res -864 16 R0
SYMATTR InstName R3
SYMATTR Value 100
SYMBOL cap -864 128 R0
SYMATTR InstName C1
SYMATTR Value 0.00001
SYMBOL res -288 96 R0
SYMATTR InstName R4
SYMATTR Value 10000
SYMBOL res -288 192 R0
SYMATTR InstName R5
SYMATTR Value 2000
SYMBOL Opamps\\OP07 -336 48 R0
SYMATTR InstName U2
SYMBOL voltage -336 64 R180
WINDOW 0 24 96 Left 2
WINDOW 3 24 16 Left 2
WINDOW 123 0 0 Left 2
WINDOW 39 0 0 Left 2
SYMATTR InstName V3
SYMATTR Value 10
SYMBOL voltage -336 272 R180
WINDOW 0 24 96 Left 2
WINDOW 3 24 16 Left 2
WINDOW 123 0 0 Left 2
WINDOW 39 0 0 Left 2
SYMATTR InstName V4
SYMATTR Value 10
SYMBOL Opamps\\OP07 336 64 R0
SYMATTR InstName U3
SYMBOL voltage 336 80 R180
WINDOW 0 24 96 Left 2
WINDOW 3 24 16 Left 2
WINDOW 123 0 0 Left 2
WINDOW 39 0 0 Left 2
SYMATTR InstName V5
SYMATTR Value 10
SYMBOL voltage 336 288 R180
WINDOW 0 24 96 Left 2
WINDOW 3 24 16 Left 2
WINDOW 123 0 0 Left 2
WINDOW 39 0 0 Left 2
SYMATTR InstName V6
SYMATTR Value 10
SYMBOL Opamps\\OP07 736 80 R0
SYMATTR InstName U4
SYMBOL voltage 736 96 R180
WINDOW 0 24 96 Left 2
WINDOW 3 24 16 Left 2
WINDOW 123 0 0 Left 2
WINDOW 39 0 0 Left 2
SYMATTR InstName V7
SYMATTR Value 10
SYMBOL voltage 736 304 R180
WINDOW 0 24 96 Left 2
WINDOW 3 24 16 Left 2
WINDOW 123 0 0 Left 2
WINDOW 39 0 0 Left 2
SYMATTR InstName V8
SYMATTR Value 10
SYMBOL res 240 96 R90
WINDOW 0 0 56 VBottom 2
WINDOW 3 32 56 VTop 2
SYMATTR InstName R6
SYMATTR Value 100
SYMBOL cap 240 -16 M0
SYMATTR InstName C2
SYMATTR Value 0.00001
SYMBOL res 624 112 R90
WINDOW 0 0 56 VBottom 2
WINDOW 3 32 56 VTop 2
SYMATTR InstName R7
SYMATTR Value 100
SYMBOL res 848 -64 R90
WINDOW 0 0 56 VBottom 2
WINDOW 3 32 56 VTop 2
SYMATTR InstName R8
SYMATTR Value 5000
SYMBOL cap 752 -160 R90
WINDOW 0 0 32 VBottom 2
WINDOW 3 32 32 VTop 2
SYMATTR InstName C3
SYMATTR Value 0.00001
SYMBOL Opamps\\OP07 -64 48 R0
SYMATTR InstName U5
SYMBOL voltage -64 64 R180
WINDOW 0 24 96 Left 2
WINDOW 3 24 16 Left 2
WINDOW 123 0 0 Left 2
WINDOW 39 0 0 Left 2
SYMATTR InstName V9
SYMATTR Value 15
SYMBOL voltage -64 272 R180
WINDOW 0 24 96 Left 2
WINDOW 3 24 16 Left 2
WINDOW 123 0 0 Left 2
WINDOW 39 0 0 Left 2
SYMATTR InstName V10
SYMATTR Value 15
TEXT -882 344 Left 2 !.tran 0 0.01 0 0.00001
