Version 4
SHEET 1 880 680
WIRE 208 128 208 96
WIRE 176 144 80 144
WIRE 272 160 240 160
WIRE 176 176 144 176
WIRE 208 224 208 192
WIRE 144 240 144 176
WIRE 272 240 144 240
WIRE 272 256 272 240
WIRE 0 336 0 144
WIRE 208 336 208 304
WIRE 208 336 0 336
WIRE 272 336 208 336
FLAG 272 336 0
FLAG 208 16 0
SYMBOL res 256 144 R0
SYMATTR InstName R1
SYMATTR Value 10000
SYMBOL res 256 240 R0
SYMATTR InstName R2
SYMATTR Value 2000
SYMBOL voltage 96 144 R90
WINDOW 0 -32 56 VBottom 2
WINDOW 3 32 56 VTop 2
WINDOW 123 0 0 Left 2
WINDOW 39 0 0 Left 2
SYMATTR InstName V1
SYMATTR Value SINE(0 2 100)
SYMBOL Opamps\\OP07 208 96 R0
SYMATTR InstName U1
SYMBOL voltage 208 112 R180
WINDOW 0 24 96 Left 2
WINDOW 3 24 16 Left 2
WINDOW 123 0 0 Left 2
WINDOW 39 0 0 Left 2
SYMATTR InstName V2
SYMATTR Value 10
SYMBOL voltage 208 320 R180
WINDOW 0 24 96 Left 2
WINDOW 3 24 16 Left 2
WINDOW 123 0 0 Left 2
WINDOW 39 0 0 Left 2
SYMATTR InstName V3
SYMATTR Value 10
TEXT -46 360 Left 2 !.tran 0 0.1 0 0.001
